44404611
  -OEChem-10022313213D

 44 46  0     1  0  0  0  0  0999 V2000
   -2.9418    1.7341   -0.1243 O   0  0  0  0  0  0  0  0  0  0  0  0
    3.4931    2.0981    0.6033 O   0  0  0  0  0  0  0  0  0  0  0  0
    4.8803    0.5714   -1.8131 O   0  0  0  0  0  0  0  0  0  0  0  0
    6.8007   -0.6039   -1.5471 O   0  0  0  0  0  0  0  0  0  0  0  0
   -2.5023   -0.9810    0.4595 N   0  0  0  0  0  0  0  0  0  0  0  0
    2.2735    0.0940    0.8077 N   0  0  0  0  0  0  0  0  0  0  0  0
    5.8581   -1.9881    0.5497 N   0  0  0  0  0  0  0  0  0  0  0  0
   -1.4126   -0.0921    0.4184 C   0  0  0  0  0  0  0  0  0  0  0  0
   -3.7768   -0.5557    0.0421 C   0  0  0  0  0  0  0  0  0  0  0  0
   -1.6713    1.2610    0.1297 C   0  0  0  0  0  0  0  0  0  0  0  0
   -2.2892   -2.3764    0.8407 C   0  0  0  0  0  0  0  0  0  0  0  0
   -3.9616    0.8120   -0.2343 C   0  0  0  0  0  0  0  0  0  0  0  0
   -0.0746   -0.4590    0.6323 C   0  0  0  0  0  0  0  0  0  0  0  0
    0.9538    0.4890    0.5827 C   0  0  0  0  0  0  0  0  0  0  0  0
   -0.6472    2.2123    0.0843 C   0  0  0  0  0  0  0  0  0  0  0  0
   -4.8829   -1.4020   -0.1337 C   0  0  0  0  0  0  0  0  0  0  0  0
    0.6676    1.8235    0.3134 C   0  0  0  0  0  0  0  0  0  0  0  0
   -1.8992   -3.1960   -0.3744 C   0  0  0  0  0  0  0  0  0  0  0  0
   -5.2003    1.3198   -0.6391 C   0  0  0  0  0  0  0  0  0  0  0  0
    4.6872    0.0875    1.0931 C   0  0  0  0  0  0  0  0  0  0  0  0
   -6.1228   -0.8987   -0.5438 C   0  0  0  0  0  0  0  0  0  0  0  0
    3.4271    0.8887    0.8034 C   0  0  0  0  0  0  0  0  0  0  0  0
    4.9575   -0.9646    0.0143 C   0  0  1  0  0  0  0  0  0  0  0  0
   -6.2826    0.4609   -0.7916 C   0  0  0  0  0  0  0  0  0  0  0  0
    5.6663   -0.3346   -1.1733 C   0  0  0  0  0  0  0  0  0  0  0  0
   -1.5209   -2.4666    1.6179 H   0  0  0  0  0  0  0  0  0  0  0  0
   -3.1764   -2.8082    1.3181 H   0  0  0  0  0  0  0  0  0  0  0  0
    0.1968   -1.4904    0.8409 H   0  0  0  0  0  0  0  0  0  0  0  0
   -0.8718    3.2529   -0.1340 H   0  0  0  0  0  0  0  0  0  0  0  0
   -4.8184   -2.4728    0.0349 H   0  0  0  0  0  0  0  0  0  0  0  0
    1.4063    2.6102    0.2603 H   0  0  0  0  0  0  0  0  0  0  0  0
   -2.6809   -3.1809   -1.1406 H   0  0  0  0  0  0  0  0  0  0  0  0
   -0.9781   -2.8309   -0.8391 H   0  0  0  0  0  0  0  0  0  0  0  0
   -1.7357   -4.2394   -0.0859 H   0  0  0  0  0  0  0  0  0  0  0  0
   -5.3225    2.3805   -0.8409 H   0  0  0  0  0  0  0  0  0  0  0  0
    2.3980   -0.8945    1.0145 H   0  0  0  0  0  0  0  0  0  0  0  0
    4.5379   -0.3848    2.0732 H   0  0  0  0  0  0  0  0  0  0  0  0
    5.5288    0.7838    1.1951 H   0  0  0  0  0  0  0  0  0  0  0  0
   -6.9641   -1.5746   -0.6699 H   0  0  0  0  0  0  0  0  0  0  0  0
    4.0520   -1.4576   -0.3528 H   0  0  0  0  0  0  0  0  0  0  0  0
   -7.2463    0.8479   -1.1087 H   0  0  0  0  0  0  0  0  0  0  0  0
    6.0021   -2.7159   -0.1498 H   0  0  0  0  0  0  0  0  0  0  0  0
    5.4178   -2.4468    1.3465 H   0  0  0  0  0  0  0  0  0  0  0  0
    5.3362    0.9701   -2.5847 H   0  0  0  0  0  0  0  0  0  0  0  0
  1 10  1  0  0  0  0
  1 12  1  0  0  0  0
  2 22  2  0  0  0  0
  3 25  1  0  0  0  0
  3 44  1  0  0  0  0
  4 25  2  0  0  0  0
  5  8  1  0  0  0  0
  5  9  1  0  0  0  0
  5 11  1  0  0  0  0
  6 14  1  0  0  0  0
  6 22  1  0  0  0  0
  6 36  1  0  0  0  0
  7 23  1  0  0  0  0
  7 42  1  0  0  0  0
  7 43  1  0  0  0  0
  8 10  2  0  0  0  0
  8 13  1  0  0  0  0
  9 12  1  0  0  0  0
  9 16  2  0  0  0  0
 10 15  1  0  0  0  0
 11 18  1  0  0  0  0
 11 26  1  0  0  0  0
 11 27  1  0  0  0  0
 12 19  2  0  0  0  0
 13 14  2  0  0  0  0
 13 28  1  0  0  0  0
 14 17  1  0  0  0  0
 15 17  2  0  0  0  0
 15 29  1  0  0  0  0
 16 21  1  0  0  0  0
 16 30  1  0  0  0  0
 17 31  1  0  0  0  0
 18 32  1  0  0  0  0
 18 33  1  0  0  0  0
 18 34  1  0  0  0  0
 19 24  1  0  0  0  0
 19 35  1  0  0  0  0
 20 22  1  0  0  0  0
 20 23  1  0  0  0  0
 20 37  1  0  0  0  0
 20 38  1  0  0  0  0
 21 24  2  0  0  0  0
 21 39  1  0  0  0  0
 23 25  1  0  0  0  0
 23 40  1  0  0  0  0
 24 41  1  0  0  0  0
M  END
> <PUBCHEM_COMPOUND_CID>
44404611

> <PUBCHEM_CONFORMER_RMSD>
0.8

> <PUBCHEM_CONFORMER_DIVERSEORDER>
1
38
57
60
21
2
35
51
58
37
34
28
49
30
66
50
13
33
63
27
10
53
22
29
64
4
14
55
20
39
18
56
65
43
17
44
19
52
31
11
23
54
67
32
42
7
62
16
26
36
61
15
59
47
45
40
6
46
9
5
8
48
25
41
24
12
3

> <PUBCHEM_MMFF94_PARTIAL_CHARGES>
35
1 -0.17
10 0.08
11 0.37
12 0.08
13 -0.15
14 0.12
15 -0.15
16 -0.15
17 -0.15
19 -0.15
2 -0.57
20 0.06
21 -0.15
22 0.57
23 0.33
24 -0.15
25 0.66
28 0.15
29 0.15
3 -0.65
30 0.15
31 0.15
35 0.15
36 0.37
39 0.15
4 -0.57
41 0.15
42 0.36
43 0.36
44 0.5
5 -0.57
6 -0.55
7 -0.99
8 0.1
9 0.1

> <PUBCHEM_EFFECTIVE_ROTOR_COUNT>
6.4

> <PUBCHEM_PHARMACOPHORE_FEATURES>
12
1 1 acceptor
1 2 acceptor
1 3 acceptor
1 4 acceptor
1 5 cation
1 6 donor
1 7 cation
1 7 donor
3 3 4 25 anion
6 1 5 8 9 10 12 rings
6 8 10 13 14 15 17 rings
6 9 12 16 19 21 24 rings

> <PUBCHEM_HEAVY_ATOM_COUNT>
25

> <PUBCHEM_ATOM_DEF_STEREO_COUNT>
0

> <PUBCHEM_ATOM_UDEF_STEREO_COUNT>
1

> <PUBCHEM_BOND_DEF_STEREO_COUNT>
0

> <PUBCHEM_BOND_UDEF_STEREO_COUNT>
0

> <PUBCHEM_ISOTOPIC_ATOM_COUNT>
0

> <PUBCHEM_COMPONENT_COUNT>
1

> <PUBCHEM_CACTVS_TAUTO_COUNT>
2

> <PUBCHEM_CONFORMER_ID>
02A58F8300000001

> <PUBCHEM_MMFF94_ENERGY>
77.8184

> <PUBCHEM_FEATURE_SELFOVERLAP>
61.014

> <PUBCHEM_SHAPE_FINGERPRINT>
11524674 6 16988558013848929439
11578080 2 16983764328125076497
12011746 2 18411695487539296951
12236239 1 17385442111476279027
12954195 1 18271247114797301233
13402501 40 18343864407134241582
13533116 47 14692574308453319462
13668630 136 17275106128456477142
13782708 43 17632009853506433231
14251757 5 18188219817644932634
14840074 17 16588026809522150447
15042514 8 18191585462188793691
15099037 51 18409161134754340307
15183329 4 18410013217083627240
15196674 1 18336538413214864433
15510800 12 17560251228343028406
15575132 122 16805314458182893117
17844677 252 18272653450087863456
19958102 18 18261661628144692143
21150785 3 16732987543741085039
21267235 1 18335984251275837267
21279426 13 18411691089525038417
21307412 95 18272943725352317542
21682296 61 17203340953119480382
21781051 124 18041853930005445803
22061861 79 17846498136329364564
2215653 11 18272651246890329398
2297311 6 18412829079590486129
23198884 109 15864069854013155625
23402539 116 18341880931877247517
23522609 53 18194430855756753560
23559900 14 18340762745109696288
3004659 81 18260546723723132200
3298306 158 18271805700816153438
335352 9 18409443688221633501
4058900 60 17459743732212540363
437815 12 17917994979511239784
44062 13 18341049734750691599
465052 167 17846500331553544668
469060 322 9295015725174723839
542803 24 16805039618603716896
59755656 215 18412543184760268126
6138700 20 18410569553246725467
86090 222 16629984161133844934
960060 61 17967535675403665792

> <PUBCHEM_SHAPE_MULTIPOLES>
476.07
16.25
2.46
1.1
11.14
0.96
0.31
3.51
5.97
-1.07
-0.16
1.53
0.06
0.6

> <PUBCHEM_SHAPE_SELFOVERLAP>
1027.182

> <PUBCHEM_SHAPE_VOLUME>
259.6

> <PUBCHEM_COORDINATE_TYPE>
2
5
10

$$$$
