345844
  -OEChem-10022313203D

 29 29  0     0  0  0  0  0  0999 V2000
    5.1533    0.5500    0.0052 O   0  0  0  0  0  0  0  0  0  0  0  0
   -1.2778    1.4746   -0.0078 O   0  0  0  0  0  0  0  0  0  0  0  0
   -6.1998    0.6960   -0.0156 O   0  0  0  0  0  0  0  0  0  0  0  0
   -5.2972   -1.3896    0.0227 O   0  0  0  0  0  0  0  0  0  0  0  0
   -0.2623   -0.6452   -0.0045 N   0  0  0  0  0  0  0  0  0  0  0  0
   -2.6649   -0.4709   -0.0037 C   0  0  0  0  0  0  0  0  0  0  0  0
   -3.8204    0.5221    0.0019 C   0  0  0  0  0  0  0  0  0  0  0  0
    1.1195   -0.3408   -0.0026 C   0  0  0  0  0  0  0  0  0  0  0  0
   -1.3261    0.2479    0.0007 C   0  0  0  0  0  0  0  0  0  0  0  0
    2.0416   -1.3742   -0.0095 C   0  0  0  0  0  0  0  0  0  0  0  0
    1.5207    0.9849    0.0076 C   0  0  0  0  0  0  0  0  0  0  0  0
    3.8244    0.2566    0.0040 C   0  0  0  0  0  0  0  0  0  0  0  0
    3.4037   -1.0734   -0.0061 C   0  0  0  0  0  0  0  0  0  0  0  0
    2.8828    1.2858    0.0109 C   0  0  0  0  0  0  0  0  0  0  0  0
   -5.1590   -0.1735    0.0011 C   0  0  0  0  0  0  0  0  0  0  0  0
    6.0614   -0.5505   -0.0043 C   0  0  0  0  0  0  0  0  0  0  0  0
   -2.7149   -1.1105   -0.8932 H   0  0  0  0  0  0  0  0  0  0  0  0
   -2.7143   -1.1201    0.8787 H   0  0  0  0  0  0  0  0  0  0  0  0
   -3.7690    1.1560    0.8946 H   0  0  0  0  0  0  0  0  0  0  0  0
   -3.7710    1.1620   -0.8866 H   0  0  0  0  0  0  0  0  0  0  0  0
   -0.4872   -1.6379   -0.0082 H   0  0  0  0  0  0  0  0  0  0  0  0
    1.7235   -2.4131   -0.0173 H   0  0  0  0  0  0  0  0  0  0  0  0
    0.8550    1.8351    0.0151 H   0  0  0  0  0  0  0  0  0  0  0  0
    4.0806   -1.9209   -0.0120 H   0  0  0  0  0  0  0  0  0  0  0  0
    3.2059    2.3234    0.0188 H   0  0  0  0  0  0  0  0  0  0  0  0
    5.9626   -1.1459   -0.9182 H   0  0  0  0  0  0  0  0  0  0  0  0
    5.9645   -1.1599    0.9007 H   0  0  0  0  0  0  0  0  0  0  0  0
    7.0741   -0.1340   -0.0022 H   0  0  0  0  0  0  0  0  0  0  0  0
   -7.0643    0.2324   -0.0112 H   0  0  0  0  0  0  0  0  0  0  0  0
  1 12  1  0  0  0  0
  1 16  1  0  0  0  0
  2  9  2  0  0  0  0
  3 15  1  0  0  0  0
  3 29  1  0  0  0  0
  4 15  2  0  0  0  0
  5  8  1  0  0  0  0
  5  9  1  0  0  0  0
  5 21  1  0  0  0  0
  6  7  1  0  0  0  0
  6  9  1  0  0  0  0
  6 17  1  0  0  0  0
  6 18  1  0  0  0  0
  7 15  1  0  0  0  0
  7 19  1  0  0  0  0
  7 20  1  0  0  0  0
  8 10  2  0  0  0  0
  8 11  1  0  0  0  0
 10 13  1  0  0  0  0
 10 22  1  0  0  0  0
 11 14  2  0  0  0  0
 11 23  1  0  0  0  0
 12 13  2  0  0  0  0
 12 14  1  0  0  0  0
 13 24  1  0  0  0  0
 14 25  1  0  0  0  0
 16 26  1  0  0  0  0
 16 27  1  0  0  0  0
 16 28  1  0  0  0  0
M  END
> <PUBCHEM_COMPOUND_CID>
345844

> <PUBCHEM_CONFORMER_RMSD>
0.8

> <PUBCHEM_CONFORMER_DIVERSEORDER>
1
12
13
8
7
10
9
11
4
14
3
6
5
2

> <PUBCHEM_MMFF94_PARTIAL_CHARGES>
22
1 -0.36
10 -0.15
11 -0.15
12 0.08
13 -0.15
14 -0.15
15 0.66
16 0.28
2 -0.57
21 0.37
22 0.15
23 0.15
24 0.15
25 0.15
29 0.5
3 -0.65
4 -0.57
5 -0.55
6 0.06
7 0.06
8 0.12
9 0.57

> <PUBCHEM_EFFECTIVE_ROTOR_COUNT>
6

> <PUBCHEM_PHARMACOPHORE_FEATURES>
7
1 1 acceptor
1 2 acceptor
1 3 acceptor
1 4 acceptor
1 5 donor
3 3 4 15 anion
6 8 10 11 12 13 14 rings

> <PUBCHEM_HEAVY_ATOM_COUNT>
16

> <PUBCHEM_ATOM_DEF_STEREO_COUNT>
0

> <PUBCHEM_ATOM_UDEF_STEREO_COUNT>
0

> <PUBCHEM_BOND_DEF_STEREO_COUNT>
0

> <PUBCHEM_BOND_UDEF_STEREO_COUNT>
0

> <PUBCHEM_ISOTOPIC_ATOM_COUNT>
0

> <PUBCHEM_COMPONENT_COUNT>
1

> <PUBCHEM_CACTVS_TAUTO_COUNT>
2

> <PUBCHEM_CONFORMER_ID>
000546F400000001

> <PUBCHEM_MMFF94_ENERGY>
45.8998

> <PUBCHEM_FEATURE_SELFOVERLAP>
35.58

> <PUBCHEM_SHAPE_FINGERPRINT>
11287383 113 18334015020822138267
11471102 20 18411138035006864360
12236239 1 17988924478644666828
12815109 37 18410573980872308105
13533116 47 14476972138345944886
13862211 1 18408602535808713018
14123238 8 18333731321015457911
1420 363 18409172112137081683
17834072 33 18343020025353859247
17834076 25 16877662361871386257
18522853 276 18342739607071232112
187816 3 15719111357725350197
19489759 90 16515682234881391581
200 152 18273214196706581249
20279233 1 17967260792468687659
20645477 70 18338797806304213334
21267235 1 18411707581671375710
23402539 116 18412539925190839647
23402655 69 18341327816707954581
23559900 14 18408881862863776513
26918003 58 18259987084830657251
33824 294 18335138665987753786
3545911 37 18410856559645181270
4214541 1 18410575076743304161
42788 4 18410575093268850757
4463277 17 18412263934539452936
5104073 3 18340486647267951753
542803 24 16950565488635066567
59755656 215 18412267203500377390
59755656 520 17312818298973393115
77779 3 18411419505883747565
8209 1 18410573980856483869
9999458 23 17968096460777888206

> <PUBCHEM_SHAPE_MULTIPOLES>
300.81
14.03
1.31
0.59
8.68
0
0
1.11
0
-0.2
0
-0.05
0
0.02

> <PUBCHEM_SHAPE_SELFOVERLAP>
617.082

> <PUBCHEM_SHAPE_VOLUME>
173

> <PUBCHEM_COORDINATE_TYPE>
2
5
10

$$$$
