145973375
  -OEChem-10022313133D

 52 54  0     1  0  0  0  0  0999 V2000
   -5.7062    2.4409   -2.4610 Br  0  0  0  0  0  0  0  0  0  0  0  0
   -5.9593   -0.4277    2.8303 F   0  0  0  0  0  0  0  0  0  0  0  0
   -7.1359    2.0224    2.5284 F   0  0  0  0  0  0  0  0  0  0  0  0
    4.2005   -0.4789    0.0370 O   0  0  0  0  0  0  0  0  0  0  0  0
    1.7314    0.4305   -0.0198 O   0  0  0  0  0  0  0  0  0  0  0  0
    3.1154   -1.4213    2.4802 O   0  0  0  0  0  0  0  0  0  0  0  0
   -4.5083   -0.3474   -1.7000 O   0  0  0  0  0  0  0  0  0  0  0  0
    1.6366   -3.1130    2.1710 O   0  0  0  0  0  0  0  0  0  0  0  0
    0.8853   -1.5275   -0.9992 N   0  0  0  0  0  0  0  0  0  0  0  0
    2.7690   -3.8644   -0.1908 N   0  0  0  0  0  0  0  0  0  0  0  0
    3.2327   -1.4081   -0.4422 C   0  0  1  0  0  0  0  0  0  0  0  0
    3.3064   -2.6618    0.4487 C   0  0  1  0  0  0  0  0  0  0  0  0
    1.8703   -0.7074   -0.4593 C   0  0  0  0  0  0  0  0  0  0  0  0
    4.6093    0.4176   -0.9853 C   0  0  0  0  0  0  0  0  0  0  0  0
    2.5863   -2.4526    1.7699 C   0  0  0  0  0  0  0  0  0  0  0  0
    5.6250    1.3691   -0.4244 C   0  0  0  0  0  0  0  0  0  0  0  0
   -0.4858   -1.2276   -1.1774 C   0  0  0  0  0  0  0  0  0  0  0  0
   -0.9819    0.0191   -0.7966 C   0  0  0  0  0  0  0  0  0  0  0  0
   -1.3413   -2.1785   -1.7336 C   0  0  0  0  0  0  0  0  0  0  0  0
    5.2114    2.5717    0.1486 C   0  0  0  0  0  0  0  0  0  0  0  0
    6.9823    1.0516   -0.4764 C   0  0  0  0  0  0  0  0  0  0  0  0
   -3.1891   -0.6357   -1.5286 C   0  0  0  0  0  0  0  0  0  0  0  0
   -2.3337    0.3151   -0.9722 C   0  0  0  0  0  0  0  0  0  0  0  0
   -2.6930   -1.8825   -1.9093 C   0  0  0  0  0  0  0  0  0  0  0  0
    6.1551    3.4568    0.6697 C   0  0  0  0  0  0  0  0  0  0  0  0
    7.9259    1.9368    0.0448 C   0  0  0  0  0  0  0  0  0  0  0  0
    7.5124    3.1393    0.6178 C   0  0  0  0  0  0  0  0  0  0  0  0
   -5.1740    0.2680   -0.6532 C   0  0  0  0  0  0  0  0  0  0  0  0
   -5.7732    1.5182   -0.8069 C   0  0  0  0  0  0  0  0  0  0  0  0
   -5.2375   -0.3896    0.5752 C   0  0  0  0  0  0  0  0  0  0  0  0
   -6.4361    2.1107    0.2679 C   0  0  0  0  0  0  0  0  0  0  0  0
   -5.9003    0.2030    1.6501 C   0  0  0  0  0  0  0  0  0  0  0  0
   -6.4996    1.4531    1.4964 C   0  0  0  0  0  0  0  0  0  0  0  0
    3.4880   -1.6939   -1.4723 H   0  0  0  0  0  0  0  0  0  0  0  0
    4.3549   -2.8717    0.6971 H   0  0  0  0  0  0  0  0  0  0  0  0
    3.7625    0.9804   -1.3945 H   0  0  0  0  0  0  0  0  0  0  0  0
    5.0560   -0.1422   -1.8171 H   0  0  0  0  0  0  0  0  0  0  0  0
    1.1670   -2.4543   -1.3111 H   0  0  0  0  0  0  0  0  0  0  0  0
    2.9493   -4.6758    0.3994 H   0  0  0  0  0  0  0  0  0  0  0  0
    3.2625   -4.0344   -1.0662 H   0  0  0  0  0  0  0  0  0  0  0  0
   -0.3819    0.8081   -0.3657 H   0  0  0  0  0  0  0  0  0  0  0  0
   -0.9675   -3.1539   -2.0342 H   0  0  0  0  0  0  0  0  0  0  0  0
    4.1566    2.8289    0.1967 H   0  0  0  0  0  0  0  0  0  0  0  0
    7.3169    0.1168   -0.9182 H   0  0  0  0  0  0  0  0  0  0  0  0
   -2.6888    1.3007   -0.6837 H   0  0  0  0  0  0  0  0  0  0  0  0
   -3.3549   -2.6273   -2.3427 H   0  0  0  0  0  0  0  0  0  0  0  0
    5.8332    4.3930    1.1165 H   0  0  0  0  0  0  0  0  0  0  0  0
    8.9827    1.6895    0.0050 H   0  0  0  0  0  0  0  0  0  0  0  0
    8.2471    3.8284    1.0238 H   0  0  0  0  0  0  0  0  0  0  0  0
    2.6459   -1.2849    3.3307 H   0  0  0  0  0  0  0  0  0  0  0  0
   -4.7854   -1.3684    0.7108 H   0  0  0  0  0  0  0  0  0  0  0  0
   -6.9088    3.0842    0.1670 H   0  0  0  0  0  0  0  0  0  0  0  0
  1 29  1  0  0  0  0
  2 32  1  0  0  0  0
  3 33  1  0  0  0  0
  4 11  1  0  0  0  0
  4 14  1  0  0  0  0
  5 13  2  0  0  0  0
  6 15  1  0  0  0  0
  6 50  1  0  0  0  0
  7 22  1  0  0  0  0
  7 28  1  0  0  0  0
  8 15  2  0  0  0  0
  9 13  1  0  0  0  0
  9 17  1  0  0  0  0
  9 38  1  0  0  0  0
 10 12  1  0  0  0  0
 10 39  1  0  0  0  0
 10 40  1  0  0  0  0
 11 12  1  0  0  0  0
 11 13  1  0  0  0  0
 11 34  1  0  0  0  0
 12 15  1  0  0  0  0
 12 35  1  0  0  0  0
 14 16  1  0  0  0  0
 14 36  1  0  0  0  0
 14 37  1  0  0  0  0
 16 20  2  0  0  0  0
 16 21  1  0  0  0  0
 17 18  2  0  0  0  0
 17 19  1  0  0  0  0
 18 23  1  0  0  0  0
 18 41  1  0  0  0  0
 19 24  2  0  0  0  0
 19 42  1  0  0  0  0
 20 25  1  0  0  0  0
 20 43  1  0  0  0  0
 21 26  2  0  0  0  0
 21 44  1  0  0  0  0
 22 23  2  0  0  0  0
 22 24  1  0  0  0  0
 23 45  1  0  0  0  0
 24 46  1  0  0  0  0
 25 27  2  0  0  0  0
 25 47  1  0  0  0  0
 26 27  1  0  0  0  0
 26 48  1  0  0  0  0
 27 49  1  0  0  0  0
 28 29  1  0  0  0  0
 28 30  2  0  0  0  0
 29 31  2  0  0  0  0
 30 32  1  0  0  0  0
 30 51  1  0  0  0  0
 31 33  1  0  0  0  0
 31 52  1  0  0  0  0
 32 33  2  0  0  0  0
M  END
> <PUBCHEM_COMPOUND_CID>
145973375

> <PUBCHEM_CONFORMER_RMSD>
1

> <PUBCHEM_CONFORMER_DIVERSEORDER>
1
56
167
15
146
64
80
123
155
117
75
51
179
86
145
124
164
159
125
108
66
113
110
153
175
109
180
88
76
33
142
63
172
106
83
121
156
70
181
122
114
178
89
129
90
103
166
118
99
133
174
128
102
21
2
143
98
79
73
37
119
152
169
28
130
60
100
154
148
134
168
11
147
53
144
131
173
112
139
65
94
126
157
71
115
74
54
104
58
176
95
92
43
158
97
161
120
137
162
50
77
135
6
163
78
105
16
84
32
35
107
45
182
149
87
82
160
13
127
171
18
23
141
151
55
72
38
49
47
91
31
41
116
25
14
39
170
42
140
30
96
150
44
101
68
177
29
111
132
165
19
69
52
62
5
93
138
22
67
57
136
20
81
24
26
61
10
46
7
17
48
8
85
4
9
36
27
12
34
40
59
3
183

> <PUBCHEM_MMFF94_PARTIAL_CHARGES>
48
1 -0.11
10 -0.99
11 0.34
12 0.33
13 0.57
14 0.42
15 0.66
16 -0.14
17 0.12
18 -0.15
19 -0.15
2 -0.19
20 -0.15
21 -0.15
22 0.08
23 -0.15
24 -0.15
25 -0.15
26 -0.15
27 -0.15
28 0.08
29 0.11
3 -0.19
30 -0.15
31 -0.15
32 0.19
33 0.19
38 0.37
39 0.36
4 -0.56
40 0.36
41 0.15
42 0.15
43 0.15
44 0.15
45 0.15
46 0.15
47 0.15
48 0.15
49 0.15
5 -0.57
50 0.5
51 0.15
52 0.15
6 -0.65
7 -0.17
8 -0.57
9 -0.55

> <PUBCHEM_EFFECTIVE_ROTOR_COUNT>
10

> <PUBCHEM_PHARMACOPHORE_FEATURES>
13
1 1 hydrophobe
1 10 cation
1 10 donor
1 4 acceptor
1 5 acceptor
1 6 acceptor
1 7 acceptor
1 8 acceptor
1 9 donor
3 6 8 15 anion
6 16 20 21 25 26 27 rings
6 17 18 19 22 23 24 rings
6 28 29 30 31 32 33 rings

> <PUBCHEM_HEAVY_ATOM_COUNT>
33

> <PUBCHEM_ATOM_DEF_STEREO_COUNT>
2

> <PUBCHEM_ATOM_UDEF_STEREO_COUNT>
0

> <PUBCHEM_BOND_DEF_STEREO_COUNT>
0

> <PUBCHEM_BOND_UDEF_STEREO_COUNT>
0

> <PUBCHEM_ISOTOPIC_ATOM_COUNT>
0

> <PUBCHEM_COMPONENT_COUNT>
1

> <PUBCHEM_CACTVS_TAUTO_COUNT>
-1

> <PUBCHEM_CONFORMER_ID>
08B3607F00000001

> <PUBCHEM_MMFF94_ENERGY>
91.7248

> <PUBCHEM_FEATURE_SELFOVERLAP>
66.043

> <PUBCHEM_SHAPE_FINGERPRINT>
10169797 241 17677051214226388282
10554248 39 17702939227959215927
10674148 151 17989207084358559608
10930396 42 17603871105607292325
11007060 377 18337105765578517879
11135609 201 18336542840988595114
11410812 94 14261086350653186608
11456790 92 18114730587434248632
1200032 147 18343306968008807530
12061779 8 17846509088939666185
12539765 74 18200886175313420340
12717326 69 14706921839752575528
13627175 4 11891625576718046913
13726171 33 18202285848254987666
13782708 43 12973594547948736724
14347329 18 17203891855457865115
14394314 77 18202289108531687921
14461889 52 17312827077843626689
14904525 67 18200597982175142017
15183329 4 17561363997664382180
15198563 99 12966312500271896058
15419009 47 10302722444305414235
15950262 2 17916023663096281516
16994733 274 17917427683546702704
17913733 40 18040715887561146226
19303781 99 9079118864386531917
19304152 47 17821999926383468853
19438510 23 18340205288788393154
19958102 18 10303801082639557405
20028762 73 11458415839337695416
21033650 10 15051741889195332103
21315759 148 17313674737585726243
21424621 283 18338792446733114844
21792965 106 18127116477940950753
21814621 53 17459750316060093377
3504750 166 11891870789011096919
3918712 181 17845382051019769721
394071 54 18409168792296057068
397830 11 17894357665979144895
4093350 32 18411984638045175794
4169191 19 18272366481974471397
4258327 124 18201710744556832629
4340502 62 17749112179839555330
437795 51 18187372030039893746
437795 70 14045750296176438635
44880568 143 17772473641446035868
4516262 110 18409719681986618628
4874694 18 17313096433292922933
5080951 261 14056985158130171039
5104073 3 17241039886652106145
54076057 255 17275107227904606792
563151 74 18113623378027313195
57724786 102 18201159849796246463
5911458 16 17989214749846924993
5937810 71 17489030482411898224
6086070 43 13973680603009850799
6201320 221 13541367982205551932
6328613 192 17846501447591192892
6695519 79 17821731598675989715
9980921 221 15051468106087960659

> <PUBCHEM_SHAPE_MULTIPOLES>
631.21
23.16
3.93
2.28
4.8
0.55
-1.06
-24.98
-6.45
5.59
-0.69
-4.59
0.38
-0.64

> <PUBCHEM_SHAPE_SELFOVERLAP>
1344.609

> <PUBCHEM_SHAPE_VOLUME>
354.3

> <PUBCHEM_COORDINATE_TYPE>
2
5
10

$$$$
